*Heading
** Job name: Cube_E343 Model name: Model-1
** Generated by: Abaqus/CAE 2020
*Preprint, echo=NO, model=NO, history=NO, contact=NO
**
** PARTS
**
*Part, name=Part-1
*Node
      1,          -5.,          -5.,          10.
      2,          -5.,  -3.57142854,          10.
      3,          -5.,  -2.14285707,          10.
      4,          -5., -0.714285731,          10.
      5,          -5.,  0.714285731,          10.
      6,          -5.,   2.14285707,          10.
      7,          -5.,   3.57142854,          10.
      8,          -5.,           5.,          10.
      9,          -5.,          -5.,    8.5714283
     10,          -5.,  -3.57142854,    8.5714283
     11,          -5.,  -2.14285707,    8.5714283
     12,          -5., -0.714285731,    8.5714283
     13,          -5.,  0.714285731,    8.5714283
     14,          -5.,   2.14285707,    8.5714283
     15,          -5.,   3.57142854,    8.5714283
     16,          -5.,           5.,    8.5714283
     17,          -5.,          -5.,   7.14285707
     18,          -5.,  -3.57142854,   7.14285707
     19,          -5.,  -2.14285707,   7.14285707
     20,          -5., -0.714285731,   7.14285707
** ... 492 like lines cut
*Element, type=C3D8R
  1,  65,  66,  74,  73,   1,   2,  10,   9
  2,  66,  67,  75,  74,   2,   3,  11,  10
  3,  67,  68,  76,  75,   3,   4,  12,  11
  4,  68,  69,  77,  76,   4,   5,  13,  12
  5,  69,  70,  78,  77,   5,   6,  14,  13
  6,  70,  71,  79,  78,   6,   7,  15,  14
  7,  71,  72,  80,  79,   7,   8,  16,  15
  8,  73,  74,  82,  81,   9,  10,  18,  17
  9,  74,  75,  83,  82,  10,  11,  19,  18
 10,  75,  76,  84,  83,  11,  12,  20,  19
 11,  76,  77,  85,  84,  12,  13,  21,  20
 12,  77,  78,  86,  85,  13,  14,  22,  21
 13,  78,  79,  87,  86,  14,  15,  23,  22
 14,  79,  80,  88,  87,  15,  16,  24,  23
 15,  81,  82,  90,  89,  17,  18,  26,  25
 16,  82,  83,  91,  90,  18,  19,  27,  26
 17,  83,  84,  92,  91,  19,  20,  28,  27
 18,  84,  85,  93,  92,  20,  21,  29,  28
 19,  85,  86,  94,  93,  21,  22,  30,  29
 20,  86,  87,  95,  94,  22,  23,  31,  30
** ... 323 like lines cut
*Nset, nset=_PickedSet3, internal, generate
   1,  512,    1
*Elset, elset=_PickedSet3, internal, generate
   1,  343,    1
** Section: Section-1
*Solid Section, elset=_PickedSet3, material=Material-1
,
*End Part
**  
**
** ASSEMBLY
**
*Assembly, name=Assembly
**  
*Instance, name=Part-1-1, part=Part-1
*End Instance
**  
*End Assembly
** 
** MATERIALS
** 
*Material, name=Material-1
*Elastic
1., 0.3
