*Heading
** Job name: Cube_E216 Model name: Model-1
** Generated by: Abaqus/CAE 2020
*Preprint, echo=NO, model=NO, history=NO, contact=NO
**
** PARTS
**
*Part, name=Part-1
*Node
      1,          -5.,          -5.,          10.
      2,          -5.,  -3.33333325,          10.
      3,          -5.,  -1.66666663,          10.
      4,          -5.,           0.,          10.
      5,          -5.,   1.66666663,          10.
      6,          -5.,   3.33333325,          10.
      7,          -5.,           5.,          10.
      8,          -5.,          -5.,   8.33333302
      9,          -5.,  -3.33333325,   8.33333302
     10,          -5.,  -1.66666663,   8.33333302
     11,          -5.,           0.,   8.33333302
     12,          -5.,   1.66666663,   8.33333302
     13,          -5.,   3.33333325,   8.33333302
     14,          -5.,           5.,   8.33333302
     15,          -5.,          -5.,   6.66666651
     16,          -5.,  -3.33333325,   6.66666651
     17,          -5.,  -1.66666663,   6.66666651
     18,          -5.,           0.,   6.66666651
     19,          -5.,   1.66666663,   6.66666651
     20,          -5.,   3.33333325,   6.66666651
** ... 323 like lines cut
*Element, type=C3D8R
  1,  50,  51,  58,  57,   1,   2,   9,   8
  2,  51,  52,  59,  58,   2,   3,  10,   9
  3,  52,  53,  60,  59,   3,   4,  11,  10
  4,  53,  54,  61,  60,   4,   5,  12,  11
  5,  54,  55,  62,  61,   5,   6,  13,  12
  6,  55,  56,  63,  62,   6,   7,  14,  13
  7,  57,  58,  65,  64,   8,   9,  16,  15
  8,  58,  59,  66,  65,   9,  10,  17,  16
  9,  59,  60,  67,  66,  10,  11,  18,  17
 10,  60,  61,  68,  67,  11,  12,  19,  18
 11,  61,  62,  69,  68,  12,  13,  20,  19
 12,  62,  63,  70,  69,  13,  14,  21,  20
 13,  64,  65,  72,  71,  15,  16,  23,  22
 14,  65,  66,  73,  72,  16,  17,  24,  23
 15,  66,  67,  74,  73,  17,  18,  25,  24
 16,  67,  68,  75,  74,  18,  19,  26,  25
 17,  68,  69,  76,  75,  19,  20,  27,  26
 18,  69,  70,  77,  76,  20,  21,  28,  27
 19,  71,  72,  79,  78,  22,  23,  30,  29
 20,  72,  73,  80,  79,  23,  24,  31,  30
** ... 196 like lines cut
*Nset, nset=_PickedSet3, internal, generate
   1,  343,    1
*Elset, elset=_PickedSet3, internal, generate
   1,  216,    1
** Section: Section-1
*Solid Section, elset=_PickedSet3, material=Material-1
,
*End Part
**  
**
** ASSEMBLY
**
*Assembly, name=Assembly
**  
*Instance, name=Part-1-1, part=Part-1
*End Instance
**  
*End Assembly
** 
** MATERIALS
** 
*Material, name=Material-1
*Elastic
1., 0.3
