*Heading
** Job name: Cube_E512 Model name: Model-1
** Generated by: Abaqus/CAE 2020
*Preprint, echo=NO, model=NO, history=NO, contact=NO
**
** PARTS
**
*Part, name=Part-1
*Node
      1,          -5.,          -5.,          10.
      2,          -5.,        -3.75,          10.
      3,          -5.,         -2.5,          10.
      4,          -5.,        -1.25,          10.
      5,          -5.,           0.,          10.
      6,          -5.,         1.25,          10.
      7,          -5.,          2.5,          10.
      8,          -5.,         3.75,          10.
      9,          -5.,           5.,          10.
     10,          -5.,          -5.,         8.75
     11,          -5.,        -3.75,         8.75
     12,          -5.,         -2.5,         8.75
     13,          -5.,        -1.25,         8.75
     14,          -5.,           0.,         8.75
     15,          -5.,         1.25,         8.75
     16,          -5.,          2.5,         8.75
     17,          -5.,         3.75,         8.75
     18,          -5.,           5.,         8.75
     19,          -5.,          -5.,          7.5
     20,          -5.,        -3.75,          7.5
** ... 709 like lines cut
*Element, type=C3D8R
  1,  82,  83,  92,  91,   1,   2,  11,  10
  2,  83,  84,  93,  92,   2,   3,  12,  11
  3,  84,  85,  94,  93,   3,   4,  13,  12
  4,  85,  86,  95,  94,   4,   5,  14,  13
  5,  86,  87,  96,  95,   5,   6,  15,  14
  6,  87,  88,  97,  96,   6,   7,  16,  15
  7,  88,  89,  98,  97,   7,   8,  17,  16
  8,  89,  90,  99,  98,   8,   9,  18,  17
  9,  91,  92, 101, 100,  10,  11,  20,  19
 10,  92,  93, 102, 101,  11,  12,  21,  20
 11,  93,  94, 103, 102,  12,  13,  22,  21
 12,  94,  95, 104, 103,  13,  14,  23,  22
 13,  95,  96, 105, 104,  14,  15,  24,  23
 14,  96,  97, 106, 105,  15,  16,  25,  24
 15,  97,  98, 107, 106,  16,  17,  26,  25
 16,  98,  99, 108, 107,  17,  18,  27,  26
 17, 100, 101, 110, 109,  19,  20,  29,  28
 18, 101, 102, 111, 110,  20,  21,  30,  29
 19, 102, 103, 112, 111,  21,  22,  31,  30
 20, 103, 104, 113, 112,  22,  23,  32,  31
** ... 492 like lines cut
*Nset, nset=_PickedSet3, internal, generate
   1,  729,    1
*Elset, elset=_PickedSet3, internal, generate
   1,  512,    1
** Section: Section-1
*Solid Section, elset=_PickedSet3, material=Material-1
,
*End Part
**  
**
** ASSEMBLY
**
*Assembly, name=Assembly
**  
*Instance, name=Part-1-1, part=Part-1
*End Instance
**  
*End Assembly
** 
** MATERIALS
** 
*Material, name=Material-1
*Elastic
1., 0.3
