*Heading
** Job name: Cubic_center_solid Model name: cubic_center_reflect_g
** Generated by: Abaqus/CAE 2020
*Preprint, echo=NO, model=NO, history=NO, contact=NO
**
** PARTS
**
*Part, name=PART-1
*Node
  25163, -0.122474484, -1.60472982e-10, -1.60473079e-10
  25164, -0.132692173, 1.11799159e-06, -0.0239855535
  25165, -0.139417276, 8.46723154e-08, -0.0491635688
  25166, -0.141326681, 5.79086588e-07, -0.0751301497
  25167, -0.136366889, 6.58280442e-07, -0.100631841
  25168, -0.122480765, -6.83778171e-06,  -0.12248189
  25169, -0.100632049, -1.4756472e-06,  -0.13636975
  25170, -0.0751299113, 9.31416423e-07, -0.141326323
  25171, -0.0491640121, -3.44076518e-08, -0.139417455
  25172, -0.0239857081, 1.28358772e-06, -0.132692128
  25173, 1.60506622e-10,  1.60329e-10, -0.122474484
  25174, 1.2840555e-10, 9.61717789e-11, -0.0979795903
  25175, 9.63044644e-11, 3.20146236e-11, -0.073484689
  25176, 6.42033787e-11, -3.21425907e-11, -0.0489897951
  25177, 3.2102293e-11, -9.6299746e-11, -0.0244948976
  25178,           0., -1.60456939e-10, -1.60439481e-10
  25179, -0.0244948976, -1.92554514e-10, -1.92540567e-10
  25180, -0.0489897951, -2.24652089e-10, -2.24641653e-10
  25181, -0.073484689, -2.56749649e-10, -2.56742738e-10
  25182, -0.0979795903, -2.88847224e-10, -2.8884381e-10
** ... 22951 like lines cut
*Element, type=C3D4
120398, 27368, 27374, 26061, 26844
120399, 26738, 27379, 27371, 26844
120400, 27365, 27368, 26060, 26844
120401, 26060, 27368, 26061, 26844
120402, 26036, 26738, 26059, 26844
120403, 26036, 26059, 26061, 26844
120404, 27371, 27379, 27370, 26844
120405, 27366, 27379, 27370, 27371
120406, 26059, 27365, 26060, 26844
120407, 26061, 26059, 26060, 26844
120408, 26738, 27371, 26739, 26845
120409, 26738, 26844, 27371, 26845
120410, 27362, 27365, 26059, 26845
120411, 26056, 27362, 26059, 26845
120412, 26738, 26739, 26035, 26845
120413, 26035, 26739, 26056, 26845
120414, 27371, 26844, 27370, 26845
120415, 27370, 26844, 27365, 26845
120416, 27365, 26844, 26059, 26845
120417, 26059, 26844, 26738, 26845
** ... 104092 like lines cut
*Elset, elset=_PickedSet2, internal
 120398, 120399, 120400, 120401, 120402, 120403, 120404, 120405, 120406, 120407, 120408, 120409, 120410, 120411, 120412, 120413
 120414, 120415, 120416, 120417, 120418, 120419, 120420, 120421, 120422, 120423, 120424, 120425, 120426, 120427, 120428, 120429
 120430, 120431, 120432, 120433, 120434, 120435, 120436, 120437, 120438, 120439, 120440, 120441, 120442, 120443, 120444, 120445
 120446, 120447, 120448, 120449, 120450, 120451, 120452, 120453, 120454, 120455, 120456, 120457, 120458, 120459, 120460, 120461
 120462, 120463, 120464, 120465, 120466, 120467, 120468, 120469, 120470, 120471, 120472, 120473, 120474, 120475, 120476, 120477
 120478, 120479, 120480, 120481, 120482, 120483, 120484, 120485, 120486, 120487, 120488, 120489, 120490, 120491, 120492, 120493
 120494, 120495, 120496, 120497, 120498, 120499, 120500, 120501, 120502, 120503, 120504, 120505, 120506, 120507, 120508, 120509
 120510, 120511, 120512, 120513, 120514, 120515, 120516, 120517, 120518, 120519, 120520, 120521, 120522, 120523, 120524, 120525
 120526, 120527, 120528, 120529, 120530, 120531, 120532, 120533, 120534, 120535, 120536, 120537, 120538, 120539, 120540, 120541
 120542, 120543, 120544, 120545, 120546, 120547, 120548, 120549, 120550, 120551, 120552, 120553, 120554, 120555, 120556, 120557
 120558, 120559, 120560, 120561, 120562, 120563, 120564, 120565, 120566, 120567, 120568, 120569, 120570, 120571, 120572, 120573
 120574, 120575, 120576, 120577, 120578, 120579, 120580, 120581, 120582, 120583, 120584, 120585, 120586, 120587, 120588, 120589
 120590, 120591, 120592, 120593, 120594, 120595, 120596, 120597, 120598, 120599, 120600, 120601, 120602, 120603, 120604, 120605
 120606, 120607, 120608, 120609, 120610, 120611, 120612, 120613, 120614, 120615, 120616, 120617, 120618, 120619, 120620, 120621
 120622, 120623, 120624, 120625, 120626, 120627, 120628, 120629, 120630, 120631, 120632, 120633, 120634, 120635, 120636, 120637
 120638, 120639, 120640, 120641, 120642, 120643, 120644, 120645, 120646, 120647, 120648, 120649, 120650, 120651, 120652, 120653
 120654, 120655, 120656, 120657, 120658, 120659, 120660, 120661, 120662, 120663, 120664, 120665, 120666, 120667, 120668, 120669
 120670, 120671, 120672, 120673, 120674, 120675, 120676, 120677, 120678, 120679, 120680, 120681, 120682, 120683, 120684, 120685
 120686, 120687, 120688, 120689, 120690, 120691, 120692, 120693, 120694, 120695, 120696, 120697, 120698, 120699, 120700, 120701
 120702, 120703, 120704, 120705, 120706, 120707, 120708, 120709, 120710, 120711, 120712, 120713, 120714, 120715, 120716, 120717
** ... 6487 like lines cut
** Section: Section-1
*Solid Section, elset=_PickedSet2, material=Material-1
,
*End Part
**  
**
** ASSEMBLY
**
*Assembly, name=Assembly
**  
*Instance, name=PART-1-1, part=PART-1
*End Instance
**  
*Elset, elset=ELE_ALL, instance=PART-1-1
 120398, 120399, 120400, 120401, 120402, 120403, 120404, 120405, 120406, 120407, 120408, 120409, 120410, 120411, 120412, 120413
 120414, 120415, 120416, 120417, 120418, 120419, 120420, 120421, 120422, 120423, 120424, 120425, 120426, 120427, 120428, 120429
 120430, 120431, 120432, 120433, 120434, 120435, 120436, 120437, 120438, 120439, 120440, 120441, 120442, 120443, 120444, 120445
 120446, 120447, 120448, 120449, 120450, 120451, 120452, 120453, 120454, 120455, 120456, 120457, 120458, 120459, 120460, 120461
 120462, 120463, 120464, 120465, 120466, 120467, 120468, 120469, 120470, 120471, 120472, 120473, 120474, 120475, 120476, 120477
 120478, 120479, 120480, 120481, 120482, 120483, 120484, 120485, 120486, 120487, 120488, 120489, 120490, 120491, 120492, 120493
 120494, 120495, 120496, 120497, 120498, 120499, 120500, 120501, 120502, 120503, 120504, 120505, 120506, 120507, 120508, 120509
 120510, 120511, 120512, 120513, 120514, 120515, 120516, 120517, 120518, 120519, 120520, 120521, 120522, 120523, 120524, 120525
 120526, 120527, 120528, 120529, 120530, 120531, 120532, 120533, 120534, 120535, 120536, 120537, 120538, 120539, 120540, 120541
 120542, 120543, 120544, 120545, 120546, 120547, 120548, 120549, 120550, 120551, 120552, 120553, 120554, 120555, 120556, 120557
 120558, 120559, 120560, 120561, 120562, 120563, 120564, 120565, 120566, 120567, 120568, 120569, 120570, 120571, 120572, 120573
 120574, 120575, 120576, 120577, 120578, 120579, 120580, 120581, 120582, 120583, 120584, 120585, 120586, 120587, 120588, 120589
 120590, 120591, 120592, 120593, 120594, 120595, 120596, 120597, 120598, 120599, 120600, 120601, 120602, 120603, 120604, 120605
 120606, 120607, 120608, 120609, 120610, 120611, 120612, 120613, 120614, 120615, 120616, 120617, 120618, 120619, 120620, 120621
 120622, 120623, 120624, 120625, 120626, 120627, 120628, 120629, 120630, 120631, 120632, 120633, 120634, 120635, 120636, 120637
 120638, 120639, 120640, 120641, 120642, 120643, 120644, 120645, 120646, 120647, 120648, 120649, 120650, 120651, 120652, 120653
 120654, 120655, 120656, 120657, 120658, 120659, 120660, 120661, 120662, 120663, 120664, 120665, 120666, 120667, 120668, 120669
 120670, 120671, 120672, 120673, 120674, 120675, 120676, 120677, 120678, 120679, 120680, 120681, 120682, 120683, 120684, 120685
 120686, 120687, 120688, 120689, 120690, 120691, 120692, 120693, 120694, 120695, 120696, 120697, 120698, 120699, 120700, 120701
 120702, 120703, 120704, 120705, 120706, 120707, 120708, 120709, 120710, 120711, 120712, 120713, 120714, 120715, 120716, 120717
** ... 6487 like lines cut
*End Assembly
** 
** MATERIALS
** 
*Material, name=Material-1
*Elastic
1., 0.3
