*Heading
** Job name: Cubic_center_beam Model name: Model-1
** Generated by: Abaqus/CAE 2020
*Preprint, echo=NO, model=NO, history=NO, contact=NO
**
** PARTS
**
*Part, name=CUBIC_CENTER
*Node
      1,          0.5,          0.5,         -0.5
      2,          0.5,          0.5,          0.5
      3,          0.5,         -0.5,          0.5
      4,          0.5,         -0.5,         -0.5
      5,           0.,           0.,           0.
      6,         -0.5,          0.5,          0.5
      7,         -0.5,         -0.5,         -0.5
      8,         -0.5,         -0.5,          0.5
      9,         -0.5,          0.5,         -0.5
     10,          0.5,          0.5, -0.400000006
     11,          0.5,          0.5, -0.300000012
     12,          0.5,          0.5, -0.200000003
     13,          0.5,          0.5, -0.100000001
     14,          0.5,          0.5,           0.
     15,          0.5,          0.5,  0.100000001
     16,          0.5,          0.5,  0.200000003
     17,          0.5,          0.5,  0.300000012
     18,          0.5,          0.5,  0.400000006
     19,          0.5, -0.400000006,          0.5
     20,          0.5, -0.300000012,          0.5
** ... 161 like lines cut
*Element, type=B31
  1,   1,  10
  2,  10,  11
  3,  11,  12
  4,  12,  13
  5,  13,  14
  6,  14,  15
  7,  15,  16
  8,  16,  17
  9,  17,  18
 10,  18,   2
 11,   3,  19
 12,  19,  20
 13,  20,  21
 14,  21,  22
 15,  22,  23
 16,  23,  24
 17,  24,  25
 18,  25,  26
 19,  26,  27
 20,  27,   2
** ... 172 like lines cut
*Elset, elset=ELEM_EDGE
   1,   2,   3,   4,   5,   6,   7,   8,   9,  10,  11,  12,  13,  14,  15,  16
  17,  18,  19,  20,  21,  22,  23,  24,  25,  26,  27,  28,  29,  30,  49,  50
  51,  52,  53,  54,  55,  56,  57,  58,  77,  78,  79,  80,  81,  82,  83,  84
  85,  86,  87,  88,  89,  90,  91,  92,  93,  94,  95,  96, 115, 116, 117, 118
 119, 120, 121, 122, 123, 124, 134, 135, 136, 137, 138, 139, 140, 141, 142, 143
 153, 154, 155, 156, 157, 158, 159, 160, 161, 162, 163, 164, 165, 166, 167, 168
 169, 170, 171, 172, 173, 174, 175, 176, 177, 178, 179, 180, 181, 182, 183, 184
 185, 186, 187, 188, 189, 190, 191, 192
*Elset, elset=ELEM_INNER
  31,  32,  33,  34,  35,  36,  37,  38,  39,  40,  41,  42,  43,  44,  45,  46
  47,  48,  59,  60,  61,  62,  63,  64,  65,  66,  67,  68,  69,  70,  71,  72
  73,  74,  75,  76,  97,  98,  99, 100, 101, 102, 103, 104, 105, 106, 107, 108
 109, 110, 111, 112, 113, 114, 125, 126, 127, 128, 129, 130, 131, 132, 133, 144
 145, 146, 147, 148, 149, 150, 151, 152
** Section: Section-0P05  Profile: Profile-0P05
*Beam Section, elset=ELEM_EDGE, material=Material-1, temperature=GRADIENTS, section=CIRC
0.05
0.1,0.,-1.
** Section: Section-0P1  Profile: Profile-0P1
*Beam Section, elset=ELEM_INNER, material=Material-1, temperature=GRADIENTS, section=CIRC
0.1
0.1,0.,-1.
*End Part
**  
**
** ASSEMBLY
**
*Assembly, name=Assembly
**  
*Instance, name=CUBIC_CENTER-1, part=CUBIC_CENTER
*End Instance
**  
*End Assembly
** 
** MATERIALS
** 
*Material, name=Material-1
*Elastic
1., 0.3
** ----------------------------------------------------------------
** 
** STEP: Step-1
** 
*Step, name=Step-1, nlgeom=NO
*Static
1., 1., 1e-05, 1.
** 
** OUTPUT REQUESTS
** 
*Restart, write, frequency=0
** 
** FIELD OUTPUT: F-Output-1
** 
*Output, field, variable=PRESELECT
** 
** HISTORY OUTPUT: H-Output-1
** 
*Output, history, variable=PRESELECT
*End Step
