*Heading
** Job name: Hexagonal_honeycomb_shellNEW Model name: Model-1
** Generated by: Abaqus/CAE 2020
*Preprint, echo=NO, model=NO, history=NO, contact=NO
**
** PARTS
**
*Part, name=PART-1
*Node
      1,          -1.,   1.73205078,           0.
      2,          -1.,   1.73205078,  0.100000001
      3,          -1.,   1.73205078,  0.200000003
      4,          -1.,   1.73205078,  0.300000012
      5,          -1.,   1.73205078,  0.400000006
      6,          -1.,   1.73205078,          0.5
      7,          -1.,   1.73205078,  0.600000024
      8,          -1.,   1.73205078,  0.699999988
      9,          -1.,   1.73205078,  0.800000012
     10,          -1.,   1.73205078,  0.899999976
     11,          -1.,   1.73205078,           1.
     12, -0.899999976,   1.73205078,           1.
     13, -0.800000012,   1.73205078,           1.
     14, -0.699999988,   1.73205078,           1.
     15, -0.600000024,   1.73205078,           1.
     16,         -0.5,   1.73205078,           1.
     17, -0.400000006,   1.73205078,           1.
     18, -0.300000012,   1.73205078,           1.
     19, -0.200000003,   1.73205078,           1.
     20, -0.100000001,   1.73205078,           1.
** ... 1520 like lines cut
*Element, type=S4R
   1,   84,   87,   88,   83
   2,   83,   88,   79,   80
   3,   87,   72,   73,   88
   4,   88,   73,   74,   79
   5,   85,   89,   87,   84
   6,   89,   71,   72,   87
   7,   63,   64,   90,   86
   8,   86,   90,   89,   85
   9,   64,   65,   70,   90
  10,   90,   70,   71,   89
  11,   18,   91,   93,   17
  12,   17,   93,   82,   16
  13,   91,   92,   94,   93
  14,   93,   94,   81,   82
  15,   92,   84,   83,   94
  16,   94,   83,   80,   81
  17,   21,   61,   95,   20
  18,   20,   95,   96,   19
  19,   19,   96,   91,   18
  20,   86,   97,   62,   63
** ... 1380 like lines cut
*Elset, elset=_PickedSet2, internal, generate
  801,  1000,     1
*Elset, elset=_PickedSet3, internal, generate
   1,  200,    1
*Elset, elset=_PickedSet4, internal, generate
 1201,  1400,     1
*Elset, elset=_PickedSet5, internal
  201,  202,  203,  204,  205,  206,  207,  208,  209,  210,  211,  212,  213,  214,  215,  216
  217,  218,  219,  220,  221,  222,  223,  224,  225,  226,  227,  228,  229,  230,  231,  232
  233,  234,  235,  236,  237,  238,  239,  240,  241,  242,  243,  244,  245,  246,  247,  248
  249,  250,  251,  252,  253,  254,  255,  256,  257,  258,  259,  260,  261,  262,  263,  264
  265,  266,  267,  268,  269,  270,  271,  272,  273,  274,  275,  276,  277,  278,  279,  280
  281,  282,  283,  284,  285,  286,  287,  288,  289,  290,  291,  292,  293,  294,  295,  296
  297,  298,  299,  300,  301,  302,  303,  304,  305,  306,  307,  308,  309,  310,  311,  312
  313,  314,  315,  316,  317,  318,  319,  320,  321,  322,  323,  324,  325,  326,  327,  328
  329,  330,  331,  332,  333,  334,  335,  336,  337,  338,  339,  340,  341,  342,  343,  344
  345,  346,  347,  348,  349,  350,  351,  352,  353,  354,  355,  356,  357,  358,  359,  360
  361,  362,  363,  364,  365,  366,  367,  368,  369,  370,  371,  372,  373,  374,  375,  376
  377,  378,  379,  380,  381,  382,  383,  384,  385,  386,  387,  388,  389,  390,  391,  392
  393,  394,  395,  396,  397,  398,  399,  400,  401,  402,  403,  404,  405,  406,  407,  408
  409,  410,  411,  412,  413,  414,  415,  416,  417,  418,  419,  420,  421,  422,  423,  424
  425,  426,  427,  428,  429,  430,  431,  432,  433,  434,  435,  436,  437,  438,  439,  440
  441,  442,  443,  444,  445,  446,  447,  448,  449,  450,  451,  452,  453,  454,  455,  456
  457,  458,  459,  460,  461,  462,  463,  464,  465,  466,  467,  468,  469,  470,  471,  472
  473,  474,  475,  476,  477,  478,  479,  480,  481,  482,  483,  484,  485,  486,  487,  488
  489,  490,  491,  492,  493,  494,  495,  496,  497,  498,  499,  500,  501,  502,  503,  504
  505,  506,  507,  508,  509,  510,  511,  512,  513,  514,  515,  516,  517,  518,  519,  520
** ... 30 like lines cut
** Section: Section-0P05
*Shell Section, elset=_PickedSet3, material=Material-1, offset=SPOS
0.05, 5
** Section: Section-0P05
*Shell Section, elset=_PickedSet5, material=Material-1
0.05, 5
** Section: Section-0P1
*Shell Section, elset=_PickedSet2, material=Material-1
0.1, 5
** Section: Section-0P05
*Shell Section, elset=_PickedSet4, material=Material-1, offset=SPOS
0.05, 5
*End Part
**  
**
** ASSEMBLY
**
*Assembly, name=Assembly
**  
*Instance, name=PART-1-1, part=PART-1
*End Instance
**  
*End Assembly
** 
** MATERIALS
** 
*Material, name=Material-1
*Elastic
1., 0.3
