*Heading
** Job name: Lattice_Hybrid_model Model name: Model-1
** Generated by: Abaqus/CAE 2020
*Preprint, echo=NO, model=NO, history=NO, contact=NO
**
** PARTS
**
*Part, name=lattice_hybrid
*Node
      1,          -1.,          -1.,          -1.
      2,          -1.,          -1., -0.800000012
      3,          -1., -0.857142866, -0.857142866
      4,          -1., -0.714285731, -0.714285731
      5, -0.857142866,          -1., -0.857142866
      6, -0.714285731,          -1., -0.714285731
      7,       -0.875,       -0.875,       -0.875
      8,        -0.75,        -0.75,        -0.75
      9,          -1.,          -1., -0.600000024
     10,          -1.,          -1., -0.400000006
     11,          -1.,          -1., -0.200000003
     12,          -1.,          -1.,           0.
     13,          -1.,          -1.,  0.200000003
     14,          -1.,          -1.,  0.400000006
     15,          -1.,          -1.,  0.600000024
     16,          -1.,          -1.,           1.
     17,       -0.875,       -0.875,        0.875
     18,        -0.75,        -0.75,         0.75
     19,          -1.,          -1.,  0.800000012
     20,          -1., -0.714285731,  0.714285731
** ... 351 like lines cut
*Element, type=S3
  1, 195, 196, 194
  2, 204, 231, 193
  3, 201, 204, 196
  4, 196, 204, 194
  5, 202, 203, 204
  6, 204, 232, 231
  7, 203, 232, 204
  8, 232, 235, 230
  9, 234, 235, 232
 10, 208, 236, 234
 11, 233, 242, 243
 12, 207, 209, 203
 13, 209, 234, 203
 14, 212, 208, 209
 15, 241, 220, 239
 16, 222, 223, 224
 17, 219, 225, 220
 18, 219, 222, 224
 19, 237, 214, 241
 20, 214, 218, 220
** ... 196 like lines cut
*Element, type=B31
217, 108, 109
218, 109,  46
219,  46,  47
220,  47,  43
221,  86,  87
222,  87,  32
223,  32,  33
224,  33,  43
225,  16,  17
226,  17,  18
227,  18,  88
228,  88,  86
229,   1,   2
230,   2,   9
231,   9,  10
232,  10,  11
233,  11,  12
234,  12,  13
235,  13,  14
236,  14,  15
** ... 260 like lines cut
*Elset, elset=_PickedSet3, internal, generate
   1,  216,    1
*Elset, elset=_PickedSet4, internal
 229, 230, 231, 232, 233, 234, 235, 236, 237, 238, 268, 269, 270, 271, 272, 273
 274, 275, 276, 277, 343, 344, 345, 346, 347, 348, 349, 350, 351, 352, 475, 476
 477, 478, 479, 480, 481, 482, 483, 484
*Elset, elset=_PickedSet5, internal
 239, 240, 241, 242, 243, 244, 245, 246, 247, 248, 249, 250, 251, 252, 253, 254
 255, 256, 257, 258, 259, 278, 279, 280, 281, 282, 283, 284, 305, 306, 307, 308
 309, 310, 311, 312, 313, 314, 315, 316, 317, 318, 353, 354, 355, 356, 357, 358
 359, 376, 377, 378, 379, 380, 381, 382, 399, 400, 401, 402, 403, 404, 405, 406
 407, 408, 409, 410, 411, 412, 413, 414, 415, 416, 417, 418, 419, 428, 429, 430
 431, 432, 433, 434, 435, 436, 437, 438, 439, 440, 441, 442, 443, 444, 445, 446
 447, 448, 449, 450, 451, 452, 453, 454, 455, 456, 457, 458, 459, 460, 461, 462
*Elset, elset=_PickedSet6, internal
 217, 218, 219, 220, 221, 222, 223, 224, 225, 226, 227, 228, 260, 261, 262, 263
 264, 265, 266, 267, 285, 286, 287, 288, 289, 290, 291, 292, 293, 294, 295, 296
 297, 298, 299, 300, 301, 302, 303, 304, 319, 320, 321, 322, 323, 324, 325, 326
 327, 328, 329, 330, 331, 332, 333, 334, 335, 336, 337, 338, 339, 340, 341, 342
 360, 361, 362, 363, 364, 365, 366, 367, 368, 369, 370, 371, 372, 373, 374, 375
 383, 384, 385, 386, 387, 388, 389, 390, 391, 392, 393, 394, 395, 396, 397, 398
 420, 421, 422, 423, 424, 425, 426, 427, 463, 464, 465, 466, 467, 468, 469, 470
 471, 472, 473, 474, 485, 486, 487, 488, 489, 490, 491, 492, 493, 494, 495, 496
** Section: Section-shell
*Shell Section, elset=_PickedSet3, material=Material-1
0.1, 5
** Section: Section-beam-inner  Profile: Profile-circle-inner
*Beam Section, elset=_PickedSet6, material=Material-1, temperature=GRADIENTS, section=CIRC
0.2
0.1,0.,-1.
** Section: Section-beam-edge  Profile: Profile-circle-edge
*Beam Section, elset=_PickedSet4, material=Material-1, temperature=GRADIENTS, section=CIRC
0.1
0.1,0.,-1.
** Section: Section-beam-face  Profile: Profile-circle-face
*Beam Section, elset=_PickedSet5, material=Material-1, temperature=GRADIENTS, section=CIRC
0.141421
0.1,0.,-1.
*End Part
**  
**
** ASSEMBLY
**
*Assembly, name=Assembly
**  
*Instance, name=lattice_hybrid-1, part=lattice_hybrid
*End Instance
**  
*End Assembly
** 
** MATERIALS
** 
*Material, name=Material-1
*Elastic
1., 0.3
** ----------------------------------------------------------------
** 
** STEP: Step-1
** 
*Step, name=Step-1, nlgeom=NO
*Static
1., 1., 1e-05, 1.
** 
** OUTPUT REQUESTS
** 
*Restart, write, frequency=0
** 
** FIELD OUTPUT: F-Output-1
** 
*Output, field
*Node Output
RF, RM, RT, U, UR, UT
*Element Output, directions=YES
E, S
** 
** HISTORY OUTPUT: H-Output-1
** 
*Output, history, variable=PRESELECT
*End Step
